U02
 OpenBabel10122018093D

  0  0  0     0  0            999 V3000
M  V30 BEGIN CTAB
M  V30 COUNTS 51 55 0 0 1
M  V30 BEGIN ATOM
M  V30 1 C 7.5576 -9.9382 -0.4478 0
M  V30 2 C 7.6482 -8.6074 -0.8551 0
M  V30 3 C 6.5101 -10.3449 0.3788 0
M  V30 4 C -0.1143 -3.3819 0.3148 0
M  V30 5 C -0.5554 -2.0586 0.2858 0
M  V30 6 C 6.6915 -7.683 -0.4358 0
M  V30 7 C 5.5533 -9.4206 0.7981 0
M  V30 8 C 8.4676 -1.6788 0.0609 0
M  V30 9 C 1.6885 -1.3204 -0.2122 0
M  V30 10 C 1.6967 -5.0187 0.1067 0
M  V30 11 C 3.9407 -4.2805 -0.3901 0
M  V30 12 C 7.7247 -2.7831 0.4247 0
M  V30 13 C 7.7692 -0.6719 -0.5736 0
M  V30 14 C 1.2352 -3.6926 0.081 0
M  V30 15 C 2.15 -2.6465 -0.1864 0
M  V30 16 C 0.3442 -1.0299 0.0226 0
M  V30 17 C 5.6439 -8.0895 0.3907 0
M  V30 18 C 3.0409 -5.3093 -0.1273 0
M  V30 19 C 3.4995 -2.9573 -0.4201 0
M  V30 20 C 5.8343 -1.8565 -0.4328 0
M  V30 21 C -0.1154 0.3411 -0.0081 0
M  V30 22 C 3.2246 -7.5699 1.1078 0
M  V30 23 C 4.6257 -7.1066 0.8358 0
M  V30 24 C 3.514 -6.7221 -0.0959 0
M  V30 25 N 6.4012 -2.9058 0.1926 0
M  V30 26 N 6.4473 -0.7277 -0.8374 0
M  V30 27 N -1.4079 0.631 0.2162 0
M  V30 28 N 4.4571 -1.9493 -0.691 0
M  V30 29 N 0.745 1.3421 -0.2587 0 CHG=1
M  V30 30 H 8.3024 -10.6579 -0.7744 0
M  V30 31 H 8.4638 -8.2909 -1.4987 0
M  V30 32 H 6.44 -11.3811 0.6965 0
M  V30 33 H -0.8352 -4.1701 0.5224 0
M  V30 34 H -1.6043 -1.8411 0.4697 0
M  V30 35 H 6.7702 -6.6484 -0.7596 0
M  V30 36 H 4.7414 -9.7474 1.4425 0
M  V30 37 H 9.5284 -1.6072 0.2599 0
M  V30 38 H 2.3672 -0.4943 -0.4153 0
M  V30 39 H 1.0024 -5.8323 0.3115 0
M  V30 40 H 4.9885 -4.5104 -0.5718 0
M  V30 41 H 8.1868 -3.6253 0.9286 0
M  V30 42 H 8.2686 0.2352 -0.8971 0
M  V30 43 H 2.9761 -8.612 0.9412 0
M  V30 44 H 2.7046 -7.1267 1.9496 0
M  V30 45 H 4.999 -6.3322 1.5014 0
M  V30 46 H 3.4728 -7.239 -1.0515 0
M  V30 47 H -2.0776 -0.1069 0.403 0
M  V30 48 H -1.747 1.5865 0.1916 0
M  V30 49 H 4.0661 -1.1415 -1.1615 0
M  V30 50 H 1.7266 1.15 -0.4245 0
M  V30 51 H 0.4394 2.309 -0.2787 0
M  V30 END ATOM
M  V30 BEGIN BOND
M  V30 1 1 1 2
M  V30 2 2 1 3
M  V30 3 1 1 30
M  V30 4 2 2 6
M  V30 5 1 2 31
M  V30 6 1 3 7
M  V30 7 1 3 32
M  V30 8 2 4 5
M  V30 9 1 4 14
M  V30 10 1 4 33
M  V30 11 1 5 16
M  V30 12 1 5 34
M  V30 13 1 6 17
M  V30 14 1 6 35
M  V30 15 2 7 17
M  V30 16 1 7 36
M  V30 17 1 8 12
M  V30 18 2 8 13
M  V30 19 1 8 37
M  V30 20 1 9 15
M  V30 21 2 9 16
M  V30 22 1 9 38
M  V30 23 2 10 14
M  V30 24 1 10 18
M  V30 25 1 10 39
M  V30 26 2 11 18
M  V30 27 1 11 19
M  V30 28 1 11 40
M  V30 29 2 12 25
M  V30 30 1 12 41
M  V30 31 1 13 26
M  V30 32 1 13 42
M  V30 33 1 14 15
M  V30 34 2 15 19
M  V30 35 1 16 21
M  V30 36 1 17 23
M  V30 37 1 18 24
M  V30 38 1 19 28
M  V30 39 1 20 25
M  V30 40 2 20 26
M  V30 41 1 20 28
M  V30 42 1 21 27
M  V30 43 2 21 29
M  V30 44 1 22 23
M  V30 45 1 22 24
M  V30 46 1 22 43
M  V30 47 1 22 44
M  V30 48 1 23 24
M  V30 49 1 23 45
M  V30 50 1 24 46
M  V30 51 1 27 47
M  V30 52 1 27 48
M  V30 53 1 28 49
M  V30 54 1 29 50
M  V30 55 1 29 51
M  V30 END BOND
M  V30 END CTAB
M  END
