U04
 OpenBabel10122018093D

  0  0  0     0  0            999 V3000
M  V30 BEGIN CTAB
M  V30 COUNTS 41 42 0 0 0
M  V30 BEGIN ATOM
M  V30 1 C 2.5722 -2.0522 1.8839 0
M  V30 2 C 2.2296 -0.5597 0.0151 0
M  V30 3 C 8.3394 -3.4331 -0.9386 0
M  V30 4 C 7.6961 -5.7458 -0.6644 0
M  V30 5 C 1.5046 -1.4567 2.5553 0
M  V30 6 C 1.1619 0.036 0.6866 0
M  V30 7 C 7.0882 -3.1498 -1.4858 0
M  V30 8 C 6.4446 -5.4624 -1.2117 0
M  V30 9 C 2.9348 -1.6038 0.6137 0
M  V30 10 C 8.6434 -4.7311 -0.5279 0
M  V30 11 C 0.7993 -0.4127 1.9567 0
M  V30 12 C 6.1407 -4.1643 -1.6222 0
M  V30 13 C -1.4206 0.7811 2.053 0
M  V30 14 C 4.076 -2.2411 -0.1045 0
M  V30 15 C 9.9817 -5.0341 0.0555 0
M  V30 16 N -1.8765 0.2895 0.8288 0
M  V30 17 N -0.2822 0.19 2.6363 0
M  V30 18 N 3.6539 -3.3888 -0.9443 0
M  V30 19 N -2.1457 1.8022 2.659 0 CHG=1
M  V30 20 O 4.6978 -2.6439 -3.1765 0
M  V30 21 O 4.0399 -5.0501 -2.8578 0
M  V30 22 F 10.8069 -3.9477 0.1271 0
M  V30 23 F 9.9251 -5.5222 1.3301 0
M  V30 24 F 10.6692 -5.9686 -0.6638 0
M  V30 25 S 4.5566 -3.8061 -2.3201 0
M  V30 26 H 3.1166 -2.865 2.3577 0
M  V30 27 H 2.5054 -0.2041 -0.9742 0
M  V30 28 H 9.0717 -2.6367 -0.8371 0
M  V30 29 H 7.9245 -6.7602 -0.3486 0
M  V30 30 H 1.2268 -1.8108 3.5445 0
M  V30 31 H 0.6168 0.849 0.2151 0
M  V30 32 H 6.8627 -2.1355 -1.8045 0
M  V30 33 H 5.714 -6.2603 -1.3147 0
M  V30 34 H 4.5821 -1.511 -0.7535 0
M  V30 35 H 4.8381 -2.5972 0.6044 0
M  V30 36 H -1.4041 -0.4804 0.3612 0
M  V30 37 H -2.6953 0.6856 0.3736 0
M  V30 38 H -0.232 0.2425 3.6621 0
M  V30 39 H 3.1037 -4.1029 -0.4639 0
M  V30 40 H -3.004 2.1491 2.2367 0
M  V30 41 H -1.9002 2.1829 3.5678 0
M  V30 END ATOM
M  V30 BEGIN BOND
M  V30 1 1 1 5
M  V30 2 2 1 9
M  V30 3 1 1 26
M  V30 4 2 2 6
M  V30 5 1 2 9
M  V30 6 1 2 27
M  V30 7 2 3 7
M  V30 8 1 3 10
M  V30 9 1 3 28
M  V30 10 1 4 8
M  V30 11 2 4 10
M  V30 12 1 4 29
M  V30 13 2 5 11
M  V30 14 1 5 30
M  V30 15 1 6 11
M  V30 16 1 6 31
M  V30 17 1 7 12
M  V30 18 1 7 32
M  V30 19 2 8 12
M  V30 20 1 8 33
M  V30 21 1 9 14
M  V30 22 1 10 15
M  V30 23 1 11 17
M  V30 24 1 12 25
M  V30 25 1 13 16
M  V30 26 1 13 17
M  V30 27 2 13 19
M  V30 28 1 14 18
M  V30 29 1 14 34
M  V30 30 1 14 35
M  V30 31 1 15 22
M  V30 32 1 15 23
M  V30 33 1 15 24
M  V30 34 1 16 36
M  V30 35 1 16 37
M  V30 36 1 17 38
M  V30 37 1 18 25
M  V30 38 1 18 39
M  V30 39 1 19 40
M  V30 40 1 19 41
M  V30 41 2 20 25
M  V30 42 2 21 25
M  V30 END BOND
M  V30 END CTAB
M  END
