U05
 OpenBabel10122018093D

  0  0  0     0  0            999 V3000
M  V30 BEGIN CTAB
M  V30 COUNTS 60 64 0 0 1
M  V30 BEGIN ATOM
M  V30 1 C -5.0812 0.563 -2.4689 0
M  V30 2 C -4.0505 3.2774 -0.156 0
M  V30 3 C -6.1991 1.134 -3.0778 0
M  V30 4 C -2.9331 2.7061 0.4535 0
M  V30 5 C 1.8996 -0.887 0.4796 0
M  V30 6 C 2.5664 -2.0538 0.8468 0
M  V30 7 C -5.9011 3.1311 -1.7548 0
M  V30 8 C -3.2304 0.7094 -0.8704 0
M  V30 9 C -0.1843 -2.104 0.4236 0
M  V30 10 C -4.7739 2.5719 -1.1313 0
M  V30 11 C -4.3577 1.2687 -1.4937 0
M  V30 12 C -6.6082 2.4156 -2.7216 0
M  V30 13 C -2.5238 1.4246 0.0968 0
M  V30 14 C 0.5242 -0.9108 0.2746 0
M  V30 15 C 1.8625 -3.2566 1.0133 0
M  V30 16 C 0.4741 -3.2951 0.7698 0
M  V30 17 C -7.7675 3.0057 -3.3536 0
M  V30 18 C 2.6229 -4.5001 1.4037 0
M  V30 19 C -0.0346 1.5665 0.7457 0
M  V30 20 C 1.7318 -5.556 2.0376 0
M  V30 21 C -1.3355 0.8185 0.746 0
M  V30 22 C -0.1945 0.3393 -0.1028 0
M  V30 23 C -0.306 -4.5833 0.9521 0
M  V30 24 C -2.0211 -6.1945 0.0769 0
M  V30 25 C -0.4801 -5.0139 -1.5152 0
M  V30 26 C -1.254 -4.9055 -0.2045 0
M  V30 27 N -8.4556 2.3248 -4.2852 0
M  V30 28 N -8.1724 4.2413 -3.0152 0 CHG=1
M  V30 29 N 0.5782 -5.7976 1.126 0 CHG=1
M  V30 30 H -4.7792 -0.44 -2.7632 0
M  V30 31 H -4.3521 4.2807 0.1378 0
M  V30 32 H -6.7444 0.5689 -3.8295 0
M  V30 33 H -2.3887 3.2709 1.2059 0
M  V30 34 H 2.4616 0.0356 0.3614 0
M  V30 35 H 3.6413 -2.0209 1.0093 0
M  V30 36 H -6.2314 4.133 -1.4853 0
M  V30 37 H -2.9004 -0.2923 -1.1407 0
M  V30 38 H -1.2613 -2.0999 0.2735 0
M  V30 39 H 3.1012 -4.9063 0.5035 0
M  V30 40 H 3.4184 -4.2442 2.1138 0
M  V30 41 H 0.0185 2.5242 0.2403 0
M  V30 42 H 0.5758 1.5108 1.64 0
M  V30 43 H 2.2579 -6.508 2.1552 0
M  V30 44 H 1.3255 -5.2419 3.0052 0
M  V30 45 H -1.548 0.2515 1.6491 0
M  V30 46 H -0.269 0.5182 -1.1725 0
M  V30 47 H -0.8769 -4.5082 1.8858 0
M  V30 48 H -1.3433 -7.0493 0.1761 0
M  V30 49 H -2.5974 -6.1101 1.0042 0
M  V30 50 H -2.7235 -6.4116 -0.7347 0
M  V30 51 H 0.2576 -5.8228 -1.4779 0
M  V30 52 H 0.0508 -4.081 -1.7324 0
M  V30 53 H -1.1598 -5.2141 -2.3504 0
M  V30 54 H -1.9753 -4.0853 -0.2944 0
M  V30 55 H -8.1675 1.3927 -4.5611 0
M  V30 56 H -9.2665 2.7271 -4.7423 0
M  V30 57 H -7.6742 4.773 -2.3102 0
M  V30 58 H -8.9861 4.667 -3.4456 0
M  V30 59 H 0.9341 -6.1071 0.2101 0
M  V30 60 H 0.0152 -6.5808 1.4863 0
M  V30 END ATOM
M  V30 BEGIN BOND
M  V30 1 2 1 3
M  V30 2 1 1 11
M  V30 3 1 1 30
M  V30 4 2 2 4
M  V30 5 1 2 10
M  V30 6 1 2 31
M  V30 7 1 3 12
M  V30 8 1 3 32
M  V30 9 1 4 13
M  V30 10 1 4 33
M  V30 11 2 5 6
M  V30 12 1 5 14
M  V30 13 1 5 34
M  V30 14 1 6 15
M  V30 15 1 6 35
M  V30 16 1 7 10
M  V30 17 2 7 12
M  V30 18 1 7 36
M  V30 19 1 8 11
M  V30 20 2 8 13
M  V30 21 1 8 37
M  V30 22 2 9 14
M  V30 23 1 9 16
M  V30 24 1 9 38
M  V30 25 2 10 11
M  V30 26 1 12 17
M  V30 27 1 13 21
M  V30 28 1 14 22
M  V30 29 2 15 16
M  V30 30 1 15 18
M  V30 31 1 16 23
M  V30 32 1 17 27
M  V30 33 2 17 28
M  V30 34 1 18 20
M  V30 35 1 18 39
M  V30 36 1 18 40
M  V30 37 1 19 21
M  V30 38 1 19 22
M  V30 39 1 19 41
M  V30 40 1 19 42
M  V30 41 1 20 29
M  V30 42 1 20 43
M  V30 43 1 20 44
M  V30 44 1 21 22
M  V30 45 1 21 45
M  V30 46 1 22 46
M  V30 47 1 23 26
M  V30 48 1 23 29
M  V30 49 1 23 47
M  V30 50 1 24 26
M  V30 51 1 24 48
M  V30 52 1 24 49
M  V30 53 1 24 50
M  V30 54 1 25 26
M  V30 55 1 25 51
M  V30 56 1 25 52
M  V30 57 1 25 53
M  V30 58 1 26 54
M  V30 59 1 27 55
M  V30 60 1 27 56
M  V30 61 1 28 57
M  V30 62 1 28 58
M  V30 63 1 29 59
M  V30 64 1 29 60
M  V30 END BOND
M  V30 END CTAB
M  END
