
 OpenBabel10261513023D

 19 19  0  0  0  0  0  0  0  0999 V2000
   -0.7887    1.0823   -0.0140 C   0  0  0  0  0  0  0  0  0  0  0  0
    0.5983    1.1436    0.0259 C   0  0  0  0  0  0  0  0  0  0  0  0
    1.2825    2.4117    0.0470 N   0  3  0  0  0  0  0  0  0  0  0  0
    1.6511    2.5758    0.9915 H   0  0  0  0  0  0  0  0  0  0  0  0
    2.0758    2.3727   -0.6066 H   0  0  0  0  0  0  0  0  0  0  0  0
    0.6679    3.1830   -0.2272 H   0  0  0  0  0  0  0  0  0  0  0  0
    1.3700   -0.0045    0.0583 C   0  0  0  0  0  0  0  0  0  0  0  0
    0.7588   -1.2665    0.0426 C   0  0  0  0  0  0  0  0  0  0  0  0
    1.6259   -2.5018    0.0725 C   0  0  0  0  0  0  0  0  0  0  0  0
    1.0297   -3.6126    0.0571 O   0  0  0  0  0  0  0  0  0  0  0  0
    2.8738   -2.2851    0.1093 O   0  5  0  0  0  0  0  0  0  0  0  0
   -0.6433   -1.3502   -0.0014 C   0  0  0  0  0  0  0  0  0  0  0  0
   -1.4075   -0.1797   -0.0285 C   0  0  0  0  0  0  0  0  0  0  0  0
   -2.8731   -0.2550   -0.0727 N   0  3  0  0  0  0  0  0  0  0  0  0
   -3.4087   -1.3677   -0.0479 O   0  0  0  0  0  0  0  0  0  0  0  0
   -3.4851    0.8236   -0.1304 O   0  5  0  0  0  0  0  0  0  0  0  0
   -1.3901    1.9873   -0.0317 H   0  0  0  0  0  0  0  0  0  0  0  0
    2.4590    0.0376    0.0969 H   0  0  0  0  0  0  0  0  0  0  0  0
   -1.1085   -2.3384   -0.0130 H   0  0  0  0  0  0  0  0  0  0  0  0
  1 13  1  0  0  0  0
  1  2  2  0  0  0  0
  1 17  1  0  0  0  0
  2  7  1  0  0  0  0
  2  3  1  0  0  0  0
  3  6  1  0  0  0  0
  3  5  1  0  0  0  0
  3  4  1  0  0  0  0
  7  8  2  0  0  0  0
  7 18  1  0  0  0  0
  8 12  1  0  0  0  0
  8  9  1  0  0  0  0
  9 11  1  0  0  0  0
  9 10  2  0  0  0  0
 12 13  2  0  0  0  0
 12 19  1  0  0  0  0
 13 14  1  0  0  0  0
 14 16  1  0  0  0  0
 14 15  2  0  0  0  0
M  CHG  4   3   1  11  -1  14   1  16  -1
M  END
$$$$
