
 OpenBabel09251512483D

 15 15  0  0  0  0  0  0  0  0999 V2000
   -0.7508    1.1684    0.0072 C   0  0  0  0  0  0  0  0  0  0  0  0
    0.6357    1.2459    0.0322 C   0  0  0  0  0  0  0  0  0  0  0  0
    1.3838    0.0765    0.0018 C   0  0  0  0  0  0  0  0  0  0  0  0
    0.7296   -1.1488   -0.0530 C   0  0  0  0  0  0  0  0  0  0  0  0
   -0.6220   -1.2071   -0.0795 N   0  3  0  0  0  0  0  0  0  0  0  0
   -1.2779   -2.5242   -0.1394 C   0  0  0  0  0  0  0  0  0  0  0  0
   -1.3646   -0.0774   -0.0481 C   0  0  0  0  0  0  0  0  0  0  0  0
   -1.3504    2.0767    0.0315 H   0  0  0  0  0  0  0  0  0  0  0  0
    1.1319    2.2150    0.0752 H   0  0  0  0  0  0  0  0  0  0  0  0
    2.4705    0.1197    0.0224 H   0  0  0  0  0  0  0  0  0  0  0  0
    1.2740   -2.0888   -0.0772 H   0  0  0  0  0  0  0  0  0  0  0  0
   -2.3601   -2.4014   -0.2230 H   0  0  0  0  0  0  0  0  0  0  0  0
   -1.0298   -3.0617    0.7799 H   0  0  0  0  0  0  0  0  0  0  0  0
   -0.8952   -3.0507   -1.0182 H   0  0  0  0  0  0  0  0  0  0  0  0
   -2.4458   -0.1778   -0.0679 H   0  0  0  0  0  0  0  0  0  0  0  0
  1  7  1  0  0  0  0
  1  2  2  0  0  0  0
  1  8  1  0  0  0  0
  2  3  1  0  0  0  0
  2  9  1  0  0  0  0
  3  4  2  0  0  0  0
  3 10  1  0  0  0  0
  4  5  1  0  0  0  0
  4 11  1  0  0  0  0
  5  7  2  0  0  0  0
  5  6  1  0  0  0  0
  6 12  1  0  0  0  0
  6 13  1  0  0  0  0
  6 14  1  0  0  0  0
  7 15  1  0  0  0  0
M  CHG  1   5   1
M  END
$$$$
