XST
 OpenBabel02221718013D

 23 22  0  0  0  0  0  0  0  0999 V2000
   45.5640   17.0590   38.4710 O   0  5  0  0  0  0  0  0  0  0  0  0
   46.4290   18.2420   39.1260 P   0  0  0  0  0  0  0  0  0  0  0  0
   45.9590   18.4070   40.6460 O   0  5  0  0  0  0  0  0  0  0  0  0
   46.2300   19.5420   38.3900 O   0  0  0  0  0  0  0  0  0  0  0  0
   47.9650   17.7880   39.1650 O   0  0  0  0  0  0  0  0  0  0  0  0
   49.2650   18.6910   38.8440 P   0  0  0  0  0  0  0  0  0  0  0  0
   49.1830   19.0160   37.2580 O   0  0  0  0  0  0  0  0  0  0  0  0
   49.2200   19.9440   39.6650 O   0  0  0  0  0  0  0  0  0  0  0  0
   50.9810   17.6820   39.2420 S   0  0  0  0  0  0  0  0  0  0  0  0
   50.8390   16.8300   40.8580 C   0  0  0  0  0  0  0  0  0  0  0  0
   51.3370   17.7200   41.9820 C   0  0  0  0  0  0  0  0  0  0  0  0
   50.6090   18.4020   42.9090 C   0  0  0  0  0  0  0  0  0  0  0  0
   51.3020   19.2410   43.9630 C   0  0  0  0  0  0  0  0  0  0  0  0
   49.0890   18.4240   43.0220 C   0  0  0  0  0  0  0  0  0  0  0  0
   51.4235   15.9340   40.8348 H   0  0  0  0  0  0  0  0  0  0  0  0
   49.8093   16.5985   41.0344 H   0  0  0  0  0  0  0  0  0  0  0  0
   50.5692   19.6865   44.6028 H   0  0  0  0  0  0  0  0  0  0  0  0
   51.8747   20.0095   43.4873 H   0  0  0  0  0  0  0  0  0  0  0  0
   51.9516   18.6195   44.5433 H   0  0  0  0  0  0  0  0  0  0  0  0
   48.8017   19.0394   43.8488 H   0  0  0  0  0  0  0  0  0  0  0  0
   48.7284   17.4285   43.1761 H   0  0  0  0  0  0  0  0  0  0  0  0
   48.6700   18.8196   42.1204 H   0  0  0  0  0  0  0  0  0  0  0  0
   52.3615   17.8216   42.0531 H   0  0  0  0  0  0  0  0  0  0  0  0
  1  2  1  0  0  0  0
  2  3  1  0  0  0  0
  2  4  2  0  0  0  0
  2  5  1  0  0  0  0
  6  5  1  0  0  0  0
  6  7  1  0  0  0  0
  6  8  2  0  0  0  0
  6  9  1  0  0  0  0
  9 10  1  0  0  0  0
 10 11  1  0  0  0  0
 10 15  1  0  0  0  0
 10 16  1  0  0  0  0
 11 12  2  0  0  0  0
 11 23  1  0  0  0  0
 12 13  1  0  0  0  0
 12 14  1  0  0  0  0
 13 17  1  0  0  0  0
 13 18  1  0  0  0  0
 13 19  1  0  0  0  0
 14 20  1  0  0  0  0
 14 21  1  0  0  0  0
 14 22  1  0  0  0  0
M  CHG  3   1  -1   3  -1   7  -1
M  END
$$$$
